CIF file written using JARVIS-Tools package.
data_Bi2Se3
_symmetry_space_group_name_H-M  'R-3m'
_cell_length_a       12.5826
_cell_length_b       12.5826
_cell_length_c       29.1848
_cell_angle_alpha    90
_cell_angle_beta     90
_cell_angle_gamma    120

_symmetry_Int_Tables_number  166
_chemical_formula_structural  Bi2Se3
_chemical_formula_sum  Bi54Se8
_cell_volume  4001.5517288234837
_cell_formula_units_Z  27
loop_
  _symmetry_equiv_pos_site_id
 _symmetry_equiv_pos_as_xyz
 1  'x, y, z'
loop_
 _atom_site_type_symbol
 _atom_site_label
 _atom_site_symmetry_multiplicity
 _atom_site_fract_x
 _atom_site_fract_y
 _atom_site_fract_z
 _atom_site_fract_occupancy
 Bi  Bi1  1  0.22222  0.11111  0.73333  1
 Bi  Bi2  1  0.33333  0.66667  0.40000  1
 Bi  Bi3  1  0.22222  0.44444  0.73333  1
 Bi  Bi4  1  0.22222  0.77778  0.73333  1
 Bi  Bi5  1  0.55556  0.11111  0.73333  1
 Bi  Bi6  1  0.55556  0.44444  0.73333  1
 Bi  Bi7  1  0.55556  0.77778  0.73333  1
 Bi  Bi8  1  0.88889  0.11111  0.73333  1
 Bi  Bi9  1  0.88889  0.44444  0.73333  1
 Bi  Bi10  1  0.88889  0.77778  0.73333  1
 Bi  Bi11  1  0.22222  0.11111  0.93334  1
 Bi  Bi12  1  0.22222  0.44444  0.93334  1
 Bi  Bi13  1  0.66667  0.33333  0.40000  1
 Bi  Bi14  1  0.22222  0.77778  0.93334  1
 Bi  Bi15  1  0.55556  0.44444  0.93334  1
 Bi  Bi16  1  0.55556  0.77778  0.93334  1
 Bi  Bi17  1  0.88889  0.11111  0.93334  1
 Bi  Bi18  1  0.88889  0.44444  0.93334  1
 Bi  Bi19  1  0.00000  0.00000  0.40000  1
 Bi  Bi20  1  -0.00000  0.33333  0.40000  1
 Bi  Bi21  1  -0.00000  0.66667  0.40000  1
 Bi  Bi22  1  0.33333  -0.00000  0.40000  1
 Bi  Bi23  1  0.33333  0.33333  0.40000  1
 Bi  Bi24  1  0.66667  -0.00000  0.40000  1
 Bi  Bi25  1  0.11111  0.88889  0.26667  1
 Bi  Bi26  1  0.55556  0.11111  0.93334  1
 Bi  Bi27  1  0.11111  0.55556  0.26667  1
 Bi  Bi28  1  0.88889  0.77778  0.93334  1
 Bi  Bi29  1  0.11111  0.22222  0.26667  1
 Bi  Bi30  1  0.66667  0.66667  0.40000  1
 Bi  Bi31  1  0.00000  0.00000  0.60000  1
 Bi  Bi32  1  -0.00000  0.33333  0.60000  1
 Bi  Bi33  1  -0.00000  0.66667  0.60000  1
 Bi  Bi34  1  0.33333  -0.00000  0.60000  1
 Bi  Bi35  1  0.33333  0.66667  0.60000  1
 Bi  Bi36  1  0.66667  -0.00000  0.60000  1
 Bi  Bi37  1  0.77778  0.88889  0.26667  1
 Bi  Bi38  1  0.77778  0.55556  0.26667  1
 Bi  Bi39  1  0.77778  0.22222  0.26667  1
 Bi  Bi40  1  0.44444  0.88889  0.26667  1
 Bi  Bi41  1  0.44444  0.55556  0.26667  1
 Bi  Bi42  1  0.33333  0.33333  0.60000  1
 Bi  Bi43  1  0.66667  0.66667  0.60000  1
 Bi  Bi44  1  0.44444  0.22222  0.26667  1
 Bi  Bi45  1  0.77778  0.55556  0.06666  1
 Bi  Bi46  1  0.77778  0.22222  0.06666  1
 Bi  Bi47  1  0.77778  0.88889  0.06666  1
 Bi  Bi48  1  0.44444  0.55556  0.06666  1
 Bi  Bi49  1  0.44444  0.88889  0.06666  1
 Bi  Bi50  1  0.11111  0.88889  0.06666  1
 Bi  Bi51  1  0.11111  0.55556  0.06666  1
 Bi  Bi52  1  0.11111  0.22222  0.06666  1
 Bi  Bi53  1  0.66667  0.33333  0.60000  1
 Bi  Bi54  1  0.44444  0.22222  0.06666  1
 Se  Se1  1  0.66667  -0.00000  0.78723  1
 Se  Se2  1  0.22222  0.44444  0.12056  1
 Se  Se3  1  0.33333  0.66667  0.78723  1
 Se  Se4  1  0.33333  0.33333  0.78723  1
 Se  Se5  1  0.33333  -0.00000  0.78723  1
 Se  Se6  1  0.00000  0.00000  0.00000  1
 Se  Se7  1  -0.00000  0.33333  0.00000  1
 Se  Se8  1  -0.00000  0.66667  0.00000  1
 Se  Se9  1  0.66667  0.33333  0.00000  1
 Se  Se10  1  0.33333  0.33333  0.00000  1
 Se  Se11  1  0.33333  0.66667  0.00000  1
 Se  Se12  1  0.66667  -0.00000  0.00000  1
 Se  Se13  1  0.66667  0.66667  0.00000  1
 Se  Se14  1  0.11111  0.22222  0.87944  1
 Se  Se15  1  0.22222  0.11111  0.12056  1
 Se  Se16  1  0.11111  0.55556  0.87944  1
 Se  Se17  1  0.33333  -0.00000  0.00000  1
 Se  Se18  1  0.66667  0.66667  0.21277  1
 Se  Se19  1  0.77778  0.55556  0.45389  1
 Se  Se20  1  0.66667  -0.00000  0.21277  1
 Se  Se21  1  0.11111  0.88889  0.87944  1
 Se  Se22  1  0.66667  0.33333  0.78723  1
 Se  Se23  1  0.66667  0.66667  0.78723  1
 Se  Se24  1  0.22222  0.11111  0.33333  1
 Se  Se25  1  0.22222  0.44444  0.33333  1
 Se  Se26  1  0.22222  0.77778  0.33333  1
 Se  Se27  1  0.55556  0.11111  0.33333  1
 Se  Se28  1  0.55556  0.77778  0.33333  1
 Se  Se29  1  0.88889  0.11111  0.33333  1
 Se  Se30  1  0.88889  0.44444  0.33333  1
 Se  Se31  1  0.00000  0.00000  0.21277  1
 Se  Se32  1  0.55556  0.11111  0.12056  1
 Se  Se33  1  -0.00000  0.33333  0.21277  1
 Se  Se34  1  -0.00000  0.66667  0.21277  1
 Se  Se35  1  0.33333  -0.00000  0.21277  1
 Se  Se36  1  0.33333  0.33333  0.21277  1
 Se  Se37  1  0.33333  0.66667  0.21277  1
 Se  Se38  1  0.66667  0.33333  0.21277  1
 Se  Se39  1  0.44444  0.22222  0.87944  1
 Se  Se40  1  0.88889  0.44444  0.54611  1
 Se  Se41  1  0.44444  0.88889  0.87944  1
 Se  Se42  1  0.55556  0.44444  0.54611  1
 Se  Se43  1  0.55556  0.77778  0.54611  1
 Se  Se44  1  0.88889  0.11111  0.54611  1
 Se  Se45  1  0.88889  0.77778  0.33333  1
 Se  Se46  1  0.88889  0.77778  0.54611  1
 Se  Se47  1  0.11111  0.22222  0.45389  1
 Se  Se48  1  0.11111  0.55556  0.45389  1
 Se  Se49  1  0.11111  0.88889  0.45389  1
 Se  Se50  1  0.44444  0.22222  0.45389  1
 Se  Se51  1  0.44444  0.55556  0.45389  1
 Se  Se52  1  0.44444  0.88889  0.45389  1
 Se  Se53  1  0.77778  0.22222  0.45389  1
 Se  Se54  1  0.55556  0.77778  0.12056  1
 Se  Se55  1  0.11111  0.55556  0.66667  1
 Se  Se56  1  0.88889  0.77778  0.12056  1
 Se  Se57  1  0.88889  0.44444  0.12056  1
 Se  Se58  1  0.88889  0.11111  0.12056  1
 Se  Se59  1  0.55556  0.11111  0.54611  1
 Se  Se60  1  0.44444  0.55556  0.87944  1
 Se  Se61  1  0.22222  0.77778  0.54611  1
 Se  Se62  1  0.22222  0.11111  0.54611  1
 Se  Se63  1  0.77778  0.22222  0.87944  1
 Se  Se64  1  0.77778  0.55556  0.87944  1
 Se  Se65  1  0.77778  0.88889  0.87944  1
 Se  Se66  1  0.00000  0.00000  0.78723  1
 Se  Se67  1  -0.00000  0.33333  0.78723  1
 Se  Se68  1  -0.00000  0.66667  0.78723  1
 Se  Se69  1  0.22222  0.77778  0.12056  1
 Se  Se70  1  0.55556  0.44444  0.33333  1
 Se  Se71  1  0.55556  0.44444  0.12056  1
 Se  Se72  1  0.11111  0.22222  0.66667  1
 Se  Se73  1  0.11111  0.88889  0.66667  1
 Se  Se74  1  0.44444  0.22222  0.66667  1
 Se  Se75  1  0.44444  0.55556  0.66667  1
 Se  Se76  1  0.44444  0.88889  0.66667  1
 Se  Se77  1  0.77778  0.22222  0.66667  1
 Se  Se78  1  0.77778  0.55556  0.66667  1
 Se  Se79  1  0.77778  0.88889  0.66667  1
 Se  Se80  1  0.22222  0.44444  0.54611  1
 Se  Se81  1  0.77778  0.88889  0.45389  1
